Version 4
SHEET 1 880 680
WIRE 224 -80 0 -80
WIRE 224 -16 224 -80
WIRE 224 96 224 64
WIRE 320 96 224 96
WIRE 352 96 320 96
WIRE 224 128 224 96
WIRE 352 128 352 96
WIRE 0 144 0 -80
WIRE 0 256 0 224
WIRE 224 256 224 208
WIRE 352 256 352 192
FLAG 0 256 0
FLAG 224 256 0
FLAG 352 256 0
FLAG 320 96 Ipeak_meas
SYMBOL voltage 0 128 R0
WINDOW 3 -61 -190 VRight 2
WINDOW 123 0 0 Left 0
WINDOW 39 0 0 Left 0
SYMATTR InstName V1
SYMATTR Value PULSE(0 6.5 10u 1n 1n 20u 40u)
SYMBOL res 208 -32 R0
SYMATTR InstName R1
SYMATTR Value 220
SYMBOL res 208 112 R0
SYMATTR InstName R2
SYMATTR Value 220
SYMBOL cap 336 128 R0
SYMATTR InstName C1
SYMATTR Value 4.7n
TEXT -76 338 Left 2 !.tran 50u
